packages/bdgd2opendss/bdgd2opendss-1.0.0.tar.gz/bdgd2opendss-1.0.0/tests/dss_models_output/sub__/1_ALPE_1/ReguladorMT_202312598_1_ALPE_1_------1-----.dss
New "Transformer.REG_8_9712A" phases=2 windings=2 buses=["809171.1.2" "RT310761.1.2"] conns=[Delta Delta ] kvs=[23.1 23.1] kvas=[150 150] xhl=0.14 %loadloss=1.3047466666666665 %noloadloss=0.302
New "Regcontrol.REG_8_9712A" transformer="REG_8_9712A" winding=2 vreg=100.0 band=2 ptratio=231.0 

New "Transformer.REG_8_9712B" phases=2 windings=2 buses=["809171.2.3" "RT310761.2.3"] conns=[Delta Delta ] kvs=[23.1 23.1] kvas=[150 150] xhl=0.14 %loadloss=1.3047466666666665 %noloadloss=0.302
New "Regcontrol.REG_8_9712B" transformer="REG_8_9712B" winding=2 vreg=100.0 band=2 ptratio=231.0 

New "Transformer.REG_8_9712C" phases=2 windings=2 buses=["809171.3.1" "RT310761.3.1"] conns=[Delta Delta ] kvs=[23.1 23.1] kvas=[150 150] xhl=0.14 %loadloss=1.3047466666666665 %noloadloss=0.302
New "Regcontrol.REG_8_9712C" transformer="REG_8_9712C" winding=2 vreg=100.0 band=2 ptratio=231.0 

